$nemo_project_location{?} = fcm:nemo
$nemo_base{?} = trunk
$nemo_rev{?} = vn3.2
$ioipsl_project_location{?} = fcm:ioipsl
$ioipsl_base{?} = trunk
$ioipsl_rev{?} = vn3.0
$cice_project_location{?} = fcm:cice
$cice_base{?} = trunk
$cice_rev{?} = vn4.1

$nemo_path_incl{?} = NEMO/C1D_SRC NEMO/LIM_SRC_2 NEMO/LIM_SRC_3 NEMO/OPA_SRC
$ioipsl_path_incl{?} = src
$cice_path_incl{?} = cice/csm_share cice/drivers/hadgem3 cice/mpi \
 \ cice/source cice/drivers/ccsm_sequential/ice_prescribed_mod.F90

$ocean_program{?} = model

$ocean_no_dep_module{?} = mpl netcdf \
 \ mod_prism_proto mod_prism_def_partition_proto mod_prism_grids_writing \
 \ mod_prism_put_proto mod_prism_get_proto mod_prism

build-ocean.prop{dep.o}[nemo/NEMO/OPA_SRC/$ocean_program.f90] = wheneq
