$nemo_project_location{?} = fcm:nemo
$nemo_base{?} = trunk
$nemo_rev{?} = vn3.4
$ioipsl_project_location{?} = fcm:nemo
$ioipsl_base{?} = trunk
$ioipsl_rev{?} = vn3.4
$cice_project_location{?} = fcm:cice
$cice_base{?} = trunk
$cice_rev{?} = vn4.1m1

$nemo_path_incl{?} = NEMOGCM/NEMO/OPA_SRC
$ioipsl_path_incl{?} = NEMOGCM/EXTERNAL/IOIPSL/src \
 \ NEMOGCM/EXTERNAL/XMLIO_SERVER/src NEMOGCM/EXTERNAL/XMLF90/src
$cice_path_incl{?} = cice/csm_share cice/drivers/hadgem3 cice/mpi \
 \ cice/source cice/drivers/ccsm_sequential/ice_prescribed_mod.F90

$ocean_program{?} = nemo

$ocean_no_dep_module{?} = mpl netcdf \
 \ mod_prism_proto mod_prism_def_partition_proto mod_prism_grids_writing \
 \ mod_prism_put_proto mod_prism_get_proto mod_prism \
 \ mod_comprism_proto mod_prism_get_comm mpi

build-ocean.prop{dep.o}[nemo/NEMOGCM/NEMO/OPA_SRC/$ocean_program.f90] = wheneq packf_r 
